60
Comment line
O -7.1278044025 -4.63129 2.23903837
H -6.8916690838 -2.414291477 -1.8415082616
H -6.8503041523 -3.842581313 -0.0
C -6.1401685872 -2.409660187 -1.2377615756
C -6.1319868416 -3.266448837 -0.1452180605
H -6.0675770343 -5.332004177 4.4847773347
C -5.9370463443 -4.706780027 2.562630882
H -5.5098773971 -6.418504811 3.5570915542
C -5.4902050081 -5.502435649 3.7638857693
O -5.1468932157 -0.6969165192 -2.5499228576
C -5.0773636267 -1.546387731 -1.4704339494
C -5.0497846815 -3.265522579 0.7367188321
N -4.9477253465 -4.107491101 1.8748957075
H -4.6157428685 -5.253272247 3.9972513081
H -4.3139896281 -0.361703749 -2.7611071174
H -4.1022148998 -4.194559353 2.2389228425
C -3.9798711894 -1.562134117 -0.6072125108
C -3.9706376695 -2.416143993 0.4827893993
H -3.2287621412 -0.978591577 -0.7694131131
H -3.1974662266 -2.425406573 1.083647898
H -5.4511998778 2.493023407 -1.0281947006
H -5.4199039633 1.046208411 0.8248663104
C -4.678028435 2.483760827 -0.427336202
C -4.6687949151 1.629750951 0.6626657082
H -4.5464512046 4.262176187 -2.1834696452
H -4.3346764764 0.429320583 2.8165603148
H -4.0329232359 5.320889081 -3.9417981108
N -3.7009407579 4.175107935 -1.8194425102
C -3.5988814229 3.333139413 -0.6812656348
C -3.5713024778 1.614004565 1.5258871467
O -3.5017728887 0.7645333532 2.6053760549
C -3.1584610964 5.570052483 -3.708432572
H -3.1387887074 6.486121645 -3.5016383569
C -2.7116197601 4.774396861 -2.5071776846
H -2.5810890701 5.399621011 -4.4293241374
C -2.5166792628 3.334065671 0.2006712579
C -2.5084975172 2.477277021 1.2932147729
H -1.7983619522 3.910198147 0.0554531973
H -1.7569970206 2.481908311 1.8969614589
O -1.520861702 4.698906834 -2.1835851727
H -9.7763123637 2.205883427 4.7481800221
H -9.7450164491 3.652698423 6.6012410331
C -9.0031409208 2.215146007 5.3490385207
C -8.9939074009 3.069155883 6.4390404309
H -8.8715636905 0.436730647 3.5929050775
H -8.6597889622 4.269586251 8.5929350375
H -8.3580357218 -0.621982247 1.8345766119
N -8.0260532437 0.523798899 3.9569322125
C -7.9239939088 1.365767421 5.0951090879
C -7.8964149636 3.084902269 7.3022618694
O -7.8268853745 3.9343734808 8.3817507776
C -7.4835735822 -0.871145649 2.0679421507
H -7.4639011932 -1.787214811 2.2747363658
C -7.036732246 -0.075490027 3.2691970381
H -6.906201556 -0.700714177 1.3470505853
C -6.8417917487 1.364841163 5.9770459806
C -6.8336100031 2.221629813 7.0695894956
H -6.123474438 0.788708687 5.83182792
H -6.0821095065 2.216998523 7.6733361816
O -5.8459741878 0.0 3.59278955
